
#======================================================================
# CRYSTAL DATA
#----------------------------------------------------------------------
data_VESTA_phase_1

_chemical_name_common                  'ACOF-1'
_cell_length_a                         14.724000
_cell_length_b                         14.724000
_cell_length_c                         19.859999
_cell_angle_alpha                      90.000000
_cell_angle_beta                       90.000000
_cell_angle_gamma                      120.000000
_cell_volume                           3728.734523
_space_group_name_H-M_alt              'P 1'
_space_group_IT_number                 1

loop_
_space_group_symop_operation_xyz
   'x, y, z'
   'x, y, z+1/6'
   'x, y, z+1/3'
   'x, y, z+1/2'
   'x, y, z+2/3'
   'x, y, z+5/6'

loop_
   _atom_site_label
   _atom_site_occupancy
   _atom_site_fract_x
   _atom_site_fract_y
   _atom_site_fract_z
   _atom_site_adp_type
   _atom_site_U_iso_or_equiv
   _atom_site_type_symbol
   N1         1.0     0.048110     0.534990     0.083333    Uiso  ? N
   N2         1.0     0.465010     0.513120     0.083333    Uiso  ? N
   N3         1.0     0.486880     0.951890     0.083333    Uiso  ? N
   N4         1.0     0.951890     0.465010     0.083333    Uiso  ? N
   N5         1.0     0.534990     0.486880     0.083333    Uiso  ? N
   N6         1.0     0.513120     0.048110     0.083333    Uiso  ? N
   C7         1.0     0.122070     0.508090     0.083333    Uiso  ? C
   C8         1.0     0.491910     0.613980     0.083333    Uiso  ? C
   C9         1.0     0.386020     0.877930     0.083333    Uiso  ? C
   C10        1.0     0.877930     0.491910     0.083333    Uiso  ? C
   C11        1.0     0.508090     0.386020     0.083333    Uiso  ? C
   C12        1.0     0.613980     0.122070     0.083333    Uiso  ? C
   H13        1.0     0.101720     0.430560     0.083333    Uiso  ? H
   H14        1.0     0.569440     0.671160     0.083333    Uiso  ? H
   H15        1.0     0.328840     0.898280     0.083333    Uiso  ? H
   H16        1.0     0.898280     0.569440     0.083333    Uiso  ? H
   H17        1.0     0.430560     0.328840     0.083333    Uiso  ? H
   H18        1.0     0.671160     0.101720     0.083333    Uiso  ? H
   C19        1.0     0.226750     0.587700     0.083333    Uiso  ? C
   C20        1.0     0.412300     0.639050     0.083333    Uiso  ? C
   C21        1.0     0.360950     0.773250     0.083333    Uiso  ? C
   C22        1.0     0.773250     0.412300     0.083333    Uiso  ? C
   C23        1.0     0.587700     0.360950     0.083333    Uiso  ? C
   C24        1.0     0.639050     0.226750     0.083333    Uiso  ? C
   C25        1.0     0.255210     0.694490     0.083333    Uiso  ? C
   C26        1.0     0.305510     0.560730     0.083333    Uiso  ? C
   C27        1.0     0.439270     0.744790     0.083333    Uiso  ? C
   C28        1.0     0.744780     0.305510     0.083333    Uiso  ? C
   C29        1.0     0.694490     0.439270     0.083333    Uiso  ? C
   C30        1.0     0.560730     0.255210     0.083333    Uiso  ? C
   H31        1.0     0.284660     0.483130     0.083333    Uiso  ? H
   H32        1.0     0.516870     0.801520     0.083333    Uiso  ? H
   H33        1.0     0.198480     0.715340     0.083333    Uiso  ? H
   H34        1.0     0.715340     0.516870     0.083333    Uiso  ? H
   H35        1.0     0.483130     0.198480     0.083333    Uiso  ? H
   H36        1.0     0.801520     0.284660     0.083333    Uiso  ? H
