data_crystal

_cell_length_a 16.04900
_cell_length_b 9.62200
_cell_length_c 7.46500
_cell_angle_alpha 90.00000
_cell_angle_beta  90.00000
_cell_angle_gamma 90.00000

_symmetry_space_group_name_	'P 1'
_symmetry_space_group_name_H-M	'P 1'

loop_
_symmetry_equiv_pos_as_xyz
  x,y,z

loop_
_atom_site_label
_atom_site_type_symbol
_atom_site_fract_x
_atom_site_fract_y
_atom_site_fract_z
_atom_site_charge
Cu	Cu	0.33440 0.84170 0.75980 0.92900
O 	O 	0.25900 0.18430 0.50320 -0.31100
O 	O 	0.27020 0.96770 0.59880 -0.37500
O 	O 	0.58130 0.22810 0.62460 -0.36100
O 	O 	0.49810 0.29350 0.83670 -0.26900
C 	C 	0.28740 0.09340 0.59810 0.34700
C 	C 	0.36190 0.13750 0.71110 -0.01600
N 	N 	0.37310 0.02400 0.85210 -0.16200
C 	C 	0.43950 0.16060 0.60360 -0.04600
C 	C 	0.51000 0.22900 0.69610 0.32900
N 	N 	0.27840 0.67620 0.65760 -0.20900
C 	C 	0.30990 0.55260 0.62040 0.12900
N 	N 	0.24840 0.46430 0.56830 -0.10800
C 	C 	0.17730 0.54030 0.57400 0.06800
C 	C 	0.19440 0.66880 0.62590 0.06000
Cu	Cu	0.66560 0.34170 0.74020 0.92800
O 	O 	0.74100 0.68430 0.99680 -0.31100
O 	O 	0.72980 0.46770 0.90120 -0.37700
O 	O 	0.41870 0.72810 0.87540 -0.36200
O 	O 	0.50190 0.79350 0.66330 -0.27000
C 	C 	0.71260 0.59340 0.90190 0.34700
C 	C 	0.63810 0.63750 0.78890 -0.01700
N 	N 	0.62690 0.52400 0.64790 -0.16100
C 	C 	0.56050 0.66060 0.89640 -0.04600
C 	C 	0.49000 0.72900 0.80390 0.32900
N 	N 	0.72160 0.17620 0.84240 -0.20900
C 	C 	0.69010 0.05260 0.87960 0.12900
N 	N 	0.75160 0.96430 0.93170 -0.10800
C 	C 	0.82270 0.04030 0.92600 0.06900
C 	C 	0.80560 0.16880 0.87410 0.06000
Cu	Cu	0.16560 0.15830 0.25980 0.92700
O 	O 	0.24100 0.81570 0.00320 -0.31200
O 	O 	0.22980 0.03230 0.09880 -0.37800
O 	O 	0.91870 0.77190 0.12460 -0.36200
O 	O 	0.00190 0.70650 0.33670 -0.26900
C 	C 	0.21260 0.90660 0.09810 0.34800
C 	C 	0.13810 0.86250 0.21110 -0.01700
N 	N 	0.12690 0.97600 0.35210 -0.16100
C 	C 	0.06050 0.83940 0.10360 -0.04400
C 	C 	0.99000 0.77100 0.19610 0.32600
N 	N 	0.22160 0.32380 0.15760 -0.20900
C 	C 	0.19010 0.44740 0.12040 0.12900
N 	N 	0.25160 0.53570 0.06830 -0.10800
C 	C 	0.32270 0.45970 0.07400 0.06800
C 	C 	0.30560 0.33120 0.12590 0.06000
Cu	Cu	0.83440 0.65830 0.24020 0.92700
O 	O 	0.75900 0.31570 0.49680 -0.31200
O 	O 	0.77020 0.53230 0.40120 -0.37700
O 	O 	0.08130 0.27190 0.37540 -0.36200
O 	O 	0.99810 0.20650 0.16330 -0.26900
C 	C 	0.78740 0.40660 0.40190 0.34700
C 	C 	0.86190 0.36250 0.28890 -0.01700
N 	N 	0.87310 0.47600 0.14790 -0.16200
C 	C 	0.93950 0.33940 0.39640 -0.04500
C 	C 	0.01000 0.27100 0.30390 0.32700
N 	N 	0.77840 0.82380 0.34240 -0.20900
C 	C 	0.80990 0.94740 0.37960 0.12700
N 	N 	0.74840 0.03570 0.43170 -0.10700
C 	C 	0.67730 0.95970 0.42600 0.06800
C 	C 	0.69440 0.83120 0.37410 0.06000
